/*--------------------------------*- C++ -*----------------------------------*\
| =========                 |                                                 |
| \\      /  F ield         | OpenFOAM: The Open Source CFD Toolbox           |
|  \\    /   O peration     | Version:  v2006                                 |
|   \\  /    A nd           | Website:  www.openfoam.com                      |
|    \\/     M anipulation  |                                                 |
\*---------------------------------------------------------------------------*/
FoamFile
{
    version     2.0;
    format      ascii;
    class       polyBoundaryMesh;
    location    "constant/polyMesh";
    object      boundary;
}
// * * * * * * * * * * * * * * * * * * * * * * * * * * * * * * * * * * * * * //

5
(
    izquierdo
    {
        type            patch;
        nFaces          40;
        startFace       3120;
    }
    derecho
    {
        type            patch;
        nFaces          40;
        startFace       3160;
    }
    arriba
    {
        type            patch;
        nFaces          40;
        startFace       3200;
    }
    abajo
    {
        type            patch;
        nFaces          40;
        startFace       3240;
    }
    frontAndBack
    {
        type            empty;
        inGroups        1(empty);
        nFaces          3200;
        startFace       3280;
    }
)

// ************************************************************************* //
