/*--------------------------------*- C++ -*----------------------------------*\
| =========                 |                                                 |
| \\      /  F ield         | OpenFOAM: The Open Source CFD Toolbox           |
|  \\    /   O peration     | Version:  v2006                                 |
|   \\  /    A nd           | Website:  www.openfoam.com                      |
|    \\/     M anipulation  |                                                 |
\*---------------------------------------------------------------------------*/
FoamFile
{
    version     2.0;
    format      ascii;
    class       volVectorField;
    location    "0";
    object      U;
}
// * * * * * * * * * * * * * * * * * * * * * * * * * * * * * * * * * * * * * //

dimensions      [0 1 -1 0 0 0 0];

internalField   uniform (1 1 0);

boundaryField
{
    izquierdo
    {
        type            fixedValue;
        value           uniform (1 1 0);
    }
    derecho
    {
        type            fixedValue;
        value           uniform (1 1 0);
    }
    arriba
    {
        type            fixedValue;
        value           uniform (1 1 0);
    }
    abajo
    {
        type            fixedValue;
        value           uniform (1 1 0);
    }
    frontAndBack
    {
        type            empty;
    }
}


// ************************************************************************* //
