/*--------------------------------*- C++ -*----------------------------------*\
| =========                 |                                                 |
| \\      /  F ield         | OpenFOAM: The Open Source CFD Toolbox           |
|  \\    /   O peration     | Version:  2.4.0                                 |
|   \\  /    A nd           | Web:      www.OpenFOAM.org                      |
|    \\/     M anipulation  |                                                 |
\*---------------------------------------------------------------------------*/
FoamFile
{
    version     2.0;
    format      ascii;
    class       dictionary;
    location    "system";
    object      fvOptions;
}
// * * * * * * * * * * * * * * * * * * * * * * * * * * * * * * * * * * * * * //

scalarSource
{
    type scalarSemiImplicitSource;
    active          true;

    scalarSemiImplicitSourceCoeffs
    {
        volumeMode      specific;
        selectionMode   all;
        injectionRateSuSp
        {
            T           (0.01 0);
        }
    }
}


//************************************************************************* /
